14
	Energy:      -1.8969766
C         -3.70596        2.87828        0.07181
C         -2.91354        1.60186       -0.16395
H         -3.28033        3.72685       -0.47344
H         -3.74978        3.12997        1.13435
H         -4.73192        2.74862       -0.28991
C         -1.42161        1.65861        0.18397
H         -3.01935        1.31963       -1.21677
H         -3.37239        0.78954        0.41595
C         -0.74852        3.00655       -0.02010
H         -0.90305        0.91041       -0.43056
H         -1.27734        1.34992        1.22466
H         -0.93936        3.40550       -1.01979
H          0.33510        2.90870        0.10425
H         -1.09817        3.73244        0.72233
