#Powered by MCPoly

! B3LYP def2-SVP 

*xyz 0 1
H      -1.89614944299438       -1.89614944299438       -1.89614944299438
C      0.03676207148578       0.03676207148578       0.03676207148578
H      0.57829806137222       0.57829806137222       0.57829806137222
C      0.73253535463287       0.73253535463287       0.73253535463287
H      1.81568023694377       1.81568023694377       1.81568023694377
C      0.03667499083524       0.03667499083524       0.03667499083524
H      0.57814901969505       0.57814901969505       0.57814901969505
C      -1.35476102772742       -1.35476102772742       -1.35476102772742
H      -1.89629932420653       -1.89629932420653       -1.89629932420653
H      -3.13367974188334       -3.13367974188334       -3.13367974188334
*
