14
	Energy:      47.9707010
C         -7.11449        1.33604       -0.03969
C         -5.87285        0.46952       -0.06689
C         -4.65267        1.33725        0.06683
C         -3.41103        0.47072        0.03973
F         -7.23198        2.03119        1.11508
F         -8.23816        0.58500       -0.15839
F         -7.13828        2.23349       -1.05189
F         -5.82805       -0.24813       -1.22499
F         -5.92156       -0.45002        0.93825
F         -4.60392        2.25673       -0.93837
F         -4.69750        2.05497        1.22489
F         -3.38726       -0.42661        1.05204
F         -3.29354       -0.22457       -1.11495
F         -2.28736        1.22177        0.15836
